
 OpenBabel08312412173D

 18 18  0  0  0  0  0  0  0  0999 V2000
    0.9678   -0.2599   -0.2475 S   0  0  0  0  0  0  0  0  0  0  0  0
    2.5953   -0.0960    0.0592 C   0  0  0  0  0  0  0  0  0  0  0  0
    3.3592    1.1871   -0.1139 C   0  0  0  0  0  0  0  0  0  0  0  0
    3.9287    1.6920    1.2032 C   0  0  0  0  0  0  0  0  0  0  0  0
    5.2886    1.0816    1.5369 C   0  0  0  0  0  0  0  0  0  0  0  0
    5.4580   -0.3919    1.1639 C   0  0  0  0  0  0  0  0  0  0  0  0
    4.2212   -1.2268    1.4503 C   0  0  0  0  0  0  0  0  0  0  0  0
    3.2607   -1.2183    0.3776 O   0  0  0  0  0  0  0  0  0  0  0  0
    2.6848    1.9551   -0.5161 H   0  0  0  0  0  0  0  0  0  0  0  0
    4.1387    1.0448   -0.8710 H   0  0  0  0  0  0  0  0  0  0  0  0
    3.2257    1.4866    2.0202 H   0  0  0  0  0  0  0  0  0  0  0  0
    4.0428    2.7801    1.1613 H   0  0  0  0  0  0  0  0  0  0  0  0
    5.4658    1.2067    2.6132 H   0  0  0  0  0  0  0  0  0  0  0  0
    6.0770    1.6557    1.0340 H   0  0  0  0  0  0  0  0  0  0  0  0
    6.3047   -0.7857    1.7387 H   0  0  0  0  0  0  0  0  0  0  0  0
    5.7258   -0.4741    0.1036 H   0  0  0  0  0  0  0  0  0  0  0  0
    3.7251   -0.9378    2.3847 H   0  0  0  0  0  0  0  0  0  0  0  0
    4.5224   -2.2741    1.5636 H   0  0  0  0  0  0  0  0  0  0  0  0
  1  2  2  0  0  0  0
  2  3  1  0  0  0  0
  2  8  1  0  0  0  0
  3  4  1  0  0  0  0
  3  9  1  0  0  0  0
  3 10  1  0  0  0  0
  4  5  1  0  0  0  0
  4 11  1  0  0  0  0
  4 12  1  0  0  0  0
  5  6  1  0  0  0  0
  5 13  1  0  0  0  0
  5 14  1  0  0  0  0
  6  7  1  0  0  0  0
  6 15  1  0  0  0  0
  6 16  1  0  0  0  0
  7  8  1  0  0  0  0
  7 17  1  0  0  0  0
  7 18  1  0  0  0  0
M  END
$$$$
