
 OpenBabel08282412043D

 34 34  0  0  0  0  0  0  0  0999 V2000
    0.9471    0.1249    0.3235 C   0  0  0  0  0  0  0  0  0  0  0  0
    2.4141    0.0889    0.1261 N   0  0  0  0  0  0  0  0  0  0  0  0
    3.1284    1.3333   -0.8757 Si  0  0  0  0  0  0  0  0  0  0  0  0
    2.1917    2.9523   -0.6024 C   0  0  0  0  0  0  0  0  0  0  0  0
    4.9047    1.7729   -0.4940 C   0  0  0  0  0  0  0  0  0  0  0  0
    2.9655    0.7789   -2.4552 O   0  0  0  0  0  0  0  0  0  0  0  0
    3.3215   -0.7367   -3.0970 Si  0  0  0  0  0  0  0  0  0  0  0  0
    2.3470   -1.1488   -4.6215 C   0  0  0  0  0  0  0  0  0  0  0  0
    5.1533   -0.8444   -3.4961 C   0  0  0  0  0  0  0  0  0  0  0  0
    2.9699   -1.7483   -1.8007 O   0  0  0  0  0  0  0  0  0  0  0  0
    3.1517   -1.4714   -0.1540 Si  0  0  0  0  0  0  0  0  0  0  0  0
    4.9467   -1.6328    0.3445 C   0  0  0  0  0  0  0  0  0  0  0  0
    2.2509   -2.7768    0.8683 C   0  0  0  0  0  0  0  0  0  0  0  0
    0.6040    1.1080    0.6640 H   0  0  0  0  0  0  0  0  0  0  0  0
    0.6223   -0.5727    1.1076 H   0  0  0  0  0  0  0  0  0  0  0  0
    0.4031   -0.1244   -0.6000 H   0  0  0  0  0  0  0  0  0  0  0  0
    2.3182    3.2857    0.4337 H   0  0  0  0  0  0  0  0  0  0  0  0
    1.1234    2.8484   -0.8062 H   0  0  0  0  0  0  0  0  0  0  0  0
    2.5898    3.7333   -1.2570 H   0  0  0  0  0  0  0  0  0  0  0  0
    5.0335    2.0460    0.5561 H   0  0  0  0  0  0  0  0  0  0  0  0
    5.1991    2.6360   -1.1022 H   0  0  0  0  0  0  0  0  0  0  0  0
    5.6076    0.9775   -0.7367 H   0  0  0  0  0  0  0  0  0  0  0  0
    2.6105   -0.4773   -5.4445 H   0  0  0  0  0  0  0  0  0  0  0  0
    1.2703   -1.0660   -4.4483 H   0  0  0  0  0  0  0  0  0  0  0  0
    2.5584   -2.1719   -4.9483 H   0  0  0  0  0  0  0  0  0  0  0  0
    5.3973   -0.2346   -4.3653 H   0  0  0  0  0  0  0  0  0  0  0  0
    5.4408   -1.8792   -3.6949 H   0  0  0  0  0  0  0  0  0  0  0  0
    5.7545   -0.4860   -2.6522 H   0  0  0  0  0  0  0  0  0  0  0  0
    5.6203   -1.0306   -0.2538 H   0  0  0  0  0  0  0  0  0  0  0  0
    5.2608   -2.6702    0.2148 H   0  0  0  0  0  0  0  0  0  0  0  0
    5.0904   -1.3765    1.3993 H   0  0  0  0  0  0  0  0  0  0  0  0
    1.1783   -2.7961    0.6489 H   0  0  0  0  0  0  0  0  0  0  0  0
    2.3842   -2.5795    1.9336 H   0  0  0  0  0  0  0  0  0  0  0  0
    2.6552   -3.7693    0.6535 H   0  0  0  0  0  0  0  0  0  0  0  0
  1  2  1  0  0  0  0
  1 14  1  0  0  0  0
  1 15  1  0  0  0  0
  1 16  1  0  0  0  0
  2  3  1  0  0  0  0
  2 11  1  0  0  0  0
  3  4  1  0  0  0  0
  3  5  1  0  0  0  0
  3  6  1  0  0  0  0
  4 17  1  0  0  0  0
  4 18  1  0  0  0  0
  4 19  1  0  0  0  0
  5 20  1  0  0  0  0
  5 21  1  0  0  0  0
  5 22  1  0  0  0  0
  6  7  1  0  0  0  0
  7  8  1  0  0  0  0
  7  9  1  0  0  0  0
  7 10  1  0  0  0  0
  8 23  1  0  0  0  0
  8 24  1  0  0  0  0
  8 25  1  0  0  0  0
  9 26  1  0  0  0  0
  9 27  1  0  0  0  0
  9 28  1  0  0  0  0
 10 11  1  0  0  0  0
 11 12  1  0  0  0  0
 11 13  1  0  0  0  0
 12 29  1  0  0  0  0
 12 30  1  0  0  0  0
 12 31  1  0  0  0  0
 13 32  1  0  0  0  0
 13 33  1  0  0  0  0
 13 34  1  0  0  0  0
M  END
$$$$
