
 OpenBabel09102412143D

 18 18  0  0  0  0  0  0  0  0999 V2000
    1.0074   -0.2487   -0.3509 S   0  0  0  0  0  0  0  0  0  0  0  0
    2.6349   -0.0847   -0.0439 C   0  0  0  0  0  0  0  0  0  0  0  0
    3.3990    1.1984   -0.2170 C   0  0  0  0  0  0  0  0  0  0  0  0
    3.9685    1.7030    1.1003 C   0  0  0  0  0  0  0  0  0  0  0  0
    5.3282    1.0928    1.4338 C   0  0  0  0  0  0  0  0  0  0  0  0
    5.4976   -0.3808    1.0608 C   0  0  0  0  0  0  0  0  0  0  0  0
    4.2610   -1.2156    1.3472 C   0  0  0  0  0  0  0  0  0  0  0  0
    3.3004   -1.2071    0.2746 O   0  0  0  0  0  0  0  0  0  0  0  0
    2.7244    1.9664   -0.6190 H   0  0  0  0  0  0  0  0  0  0  0  0
    4.1782    1.0561   -0.9741 H   0  0  0  0  0  0  0  0  0  0  0  0
    3.2655    1.4978    1.9171 H   0  0  0  0  0  0  0  0  0  0  0  0
    4.0827    2.7913    1.0583 H   0  0  0  0  0  0  0  0  0  0  0  0
    5.5056    1.2178    2.5100 H   0  0  0  0  0  0  0  0  0  0  0  0
    6.1167    1.6669    0.9309 H   0  0  0  0  0  0  0  0  0  0  0  0
    6.3444   -0.7745    1.6356 H   0  0  0  0  0  0  0  0  0  0  0  0
    5.7655   -0.4629    0.0005 H   0  0  0  0  0  0  0  0  0  0  0  0
    3.7650   -0.9268    2.2818 H   0  0  0  0  0  0  0  0  0  0  0  0
    4.5621   -2.2629    1.4605 H   0  0  0  0  0  0  0  0  0  0  0  0
  1  2  2  0  0  0  0
  2  3  1  0  0  0  0
  2  8  1  0  0  0  0
  3  4  1  0  0  0  0
  3  9  1  0  0  0  0
  3 10  1  0  0  0  0
  4  5  1  0  0  0  0
  4 11  1  0  0  0  0
  4 12  1  0  0  0  0
  5  6  1  0  0  0  0
  5 13  1  0  0  0  0
  5 14  1  0  0  0  0
  6  7  1  0  0  0  0
  6 15  1  0  0  0  0
  6 16  1  0  0  0  0
  7  8  1  0  0  0  0
  7 17  1  0  0  0  0
  7 18  1  0  0  0  0
M  END
$$$$
